Circuit: * C:\Users\marka\Spring-2024\Senior-Design\ece_1896\electrical\SPICE\UVLO\comparator-test.asc

Limiting rise time of source v2 to 0.01
Direct Newton iteration for .op point succeeded.

Date: Mon Feb 12 10:35:23 2024
Total elapsed time: 0.071 seconds.

tnom = 27
temp = 27
method = modified trap
totiter = 2292
traniter = 2268
tranpoints = 1096
accept = 1077
rejected = 19
matrix size = 8
fillins = 0
solver = Normal
Matrix Compiler1: 246 bytes object code size  0.1/0.1/[0.0]
Matrix Compiler2: off  [0.1]/0.1/0.1

