Circuit: * C:\Users\marka\Spring-2024\Senior-Design\ece_1896\electrical\SPICE\UVLO\comparator-test.asc

Direct Newton iteration for .op point succeeded.

Date: Mon Feb 26 07:57:41 2024
Total elapsed time: 0.046 seconds.

tnom = 27
temp = 27
method = modified trap
totiter = 2587
traniter = 2567
tranpoints = 1191
accept = 1147
rejected = 44
matrix size = 8
fillins = 0
solver = Normal
Matrix Compiler1: 264 bytes object code size  0.1/0.1/[0.0]
Matrix Compiler2: off  [0.1]/0.1/0.1

